@<TRIPOS>MOLECULE
pte_paraoxon_dft_ChenJACS_coords_exact_w_ethyl_geomOPT_v0
 39 39 0 0 0
SMALL
GASTEIGER

@<TRIPOS>ATOM
      1 ZN         -2.5978   -0.4896   -0.3060 Zn      1  UNL1        0.0000
      2 ZN          0.1754    1.6062    0.0544 Zn      1  UNL1        0.0000
      3 C          -1.5383    1.5485   -2.3326 C.3     1  UNL1        0.0000
      4 O          -1.9984    0.3761   -2.1632 O.3     1  UNL1        0.0000
      5 O          -1.0564    2.3041   -1.4078 O.3     1  UNL1        0.0000
      6 O          -0.8150   -0.1164    0.6196 O.3     1  UNL1        0.0000
      7 C           6.2303   -1.1497   -0.2812 C.ar    1  UNL1        0.0000
      8 C           5.4500   -0.9663   -1.4239 C.ar    1  UNL1        0.0000
      9 C           5.7179   -1.7358    0.8750 C.ar    1  UNL1        0.0000
     10 C           4.1183   -1.3647   -1.4001 C.ar    1  UNL1        0.0000
     11 C           4.3825   -2.1277    0.8951 C.ar    1  UNL1        0.0000
     12 C           3.5841   -1.9343   -0.2370 C.ar    1  UNL1        0.0000
     13 O          -0.1326   -2.2929   -0.3793 O.3     1  UNL1        0.0000
     14 O           1.4570   -0.0090   -0.4553 O.3     1  UNL1        0.0000
     15 C           0.0405   -3.3891   -1.3276 C.3     1  UNL1        0.0000
     16 H           0.9273   -3.2127   -1.9355 H       1  UNL1        0.0000
     17 H          -0.8479   -3.3250   -1.9580 H       1  UNL1        0.0000
     18 O           1.1684   -1.3460    1.7726 O.3     1  UNL1        0.0000
     19 P           1.0200   -1.3169    0.1755 P.3     1  UNL1        0.0000
     20 O           2.2755   -2.3586   -0.2296 O.3     1  UNL1        0.0000
     21 C           0.5810   -2.4122    2.5838 C.3     1  UNL1        0.0000
     22 H          -0.2443   -2.8640    2.0311 H       1  UNL1        0.0000
     23 H           0.1602   -1.9032    3.4495 H       1  UNL1        0.0000
     24 N           7.6285   -0.6984   -0.2949 N.pl3   1  UNL1        0.0000
     25 O           8.3148   -0.9332    0.6970 O.2     1  UNL1        0.0000
     26 O           8.0209   -0.0994   -1.2982 O.2     1  UNL1        0.0000
     27 H           5.8966   -0.5238   -2.3059 H       1  UNL1        0.0000
     28 H           6.3626   -1.8690    1.7347 H       1  UNL1        0.0000
     29 H           3.4810   -1.2365   -2.2671 H       1  UNL1        0.0000
     30 H           3.9526   -2.5821    1.7800 H       1  UNL1        0.0000
     31 H          -1.0920   -0.3103    1.5539 H       1  UNL1        0.0000
     32 C           0.1068   -4.7117   -0.5927 C.3     1  UNL1        0.0000
     33 H           0.1394   -5.5322   -1.3182 H       1  UNL1        0.0000
     34 H           1.0022   -4.7668    0.0325 H       1  UNL1        0.0000
     35 H          -0.7783   -4.8450    0.0377 H       1  UNL1        0.0000
     36 C           1.6248   -3.4399    2.9724 C.3     1  UNL1        0.0000
     37 H           2.4511   -2.9706    3.5159 H       1  UNL1        0.0000
     38 H           1.1660   -4.1870    3.6296 H       1  UNL1        0.0000
     39 H           2.0243   -3.9547    2.0943 H       1  UNL1        0.0000
@<TRIPOS>BOND
     1     3     4    1
     2     3     5    1
     3    27     8    1
     4    29    10    1
     5     4     1    1
     6    17    15    1
     7    16    15    1
     8     8    10   ar
     9     8     7   ar
    10     5     2    1
    11    10    12   ar
    12    15    32    1
    13    15    13    1
    14    33    32    1
    15    26    24    2
    16    32    34    1
    17    32    35    1
    18    14     2    1
    19    14    19    1
    20    13    19    1
    21     1     6    1
    22    24     7    1
    23    24    25    2
    24     7     9   ar
    25    12    20    1
    26    12    11   ar
    27    20    19    1
    28    19    18    1
    29     6    31    1
    30     9    11   ar
    31     9    28    1
    32    11    30    1
    33    18    21    1
    34    22    21    1
    35    39    36    1
    36    21    36    1
    37    21    23    1
    38    36    37    1
    39    36    38    1
@<TRIPOS>MOLECULE
pte_paraoxon_dft_ChenJACS_coords_exact_w_ethyl_geomOPT_v1
 39 39 0 0 0
SMALL
GASTEIGER

@<TRIPOS>ATOM
      1 ZN         -2.5923   -0.4931   -0.3241 Zn      1  UNL1        0.0000
      2 ZN          0.2004    1.5807    0.0111 Zn      1  UNL1        0.0000
      3 C          -1.5092    1.5045   -2.3784 C.3     1  UNL1        0.0000
      4 O          -1.9810    0.3392   -2.1927 O.3     1  UNL1        0.0000
      5 O          -1.0217    2.2689   -1.4638 O.3     1  UNL1        0.0000
      6 O          -0.8077   -0.1236    0.5996 O.3     1  UNL1        0.0000
      7 C           6.2289   -1.2384   -0.2716 C.ar    1  UNL1        0.0000
      8 C           5.4525   -1.0643   -1.4184 C.ar    1  UNL1        0.0000
      9 C           5.7086   -1.8024    0.8921 C.ar    1  UNL1        0.0000
     10 C           4.1170   -1.4494   -1.3915 C.ar    1  UNL1        0.0000
     11 C           4.3694   -2.1809    0.9152 C.ar    1  UNL1        0.0000
     12 C           3.5751   -1.9966   -0.2213 C.ar    1  UNL1        0.0000
     13 O          -0.1446   -2.3211   -0.3659 O.3     1  UNL1        0.0000
     14 O           1.4673   -0.0541   -0.4722 O.3     1  UNL1        0.0000
     15 C           0.0231   -3.4343   -1.2952 C.3     1  UNL1        0.0000
     16 H           0.8952   -3.2589   -1.9246 H       1  UNL1        0.0000
     17 H          -0.8782   -3.3916   -1.9089 H       1  UNL1        0.0000
     18 O           1.1614   -1.3553    1.7745 O.3     1  UNL1        0.0000
     19 P           1.0164   -1.3482    0.1769 P.3     1  UNL1        0.0000
     20 O           2.2624   -2.4079   -0.2103 O.3     1  UNL1        0.0000
     21 C           0.7546   -2.5221    2.5459 C.3     1  UNL1        0.0000
     22 H           1.3932   -3.3636    2.2600 H       1  UNL1        0.0000
     23 H          -0.2831   -2.7547    2.2989 H       1  UNL1        0.0000
     24 N           7.6314   -0.8009   -0.2891 N.pl3   1  UNL1        0.0000
     25 O           8.3136   -1.0277    0.7076 O.2     1  UNL1        0.0000
     26 O           8.0315   -0.2206   -1.3003 O.2     1  UNL1        0.0000
     27 H           5.9051   -0.6392   -2.3059 H       1  UNL1        0.0000
     28 H           6.3504   -1.9291    1.7549 H       1  UNL1        0.0000
     29 H           3.4827   -1.3278   -2.2616 H       1  UNL1        0.0000
     30 H           3.9334   -2.6180    1.8058 H       1  UNL1        0.0000
     31 H          -1.0884   -0.3010    1.5360 H       1  UNL1        0.0000
     32 C           0.1198   -4.7430   -0.5386 C.3     1  UNL1        0.0000
     33 H           0.1439   -5.5756   -1.2504 H       1  UNL1        0.0000
     34 H           1.0295   -4.7775    0.0669 H       1  UNL1        0.0000
     35 H          -0.7494   -4.8729    0.1143 H       1  UNL1        0.0000
     36 C           0.9002   -2.1664    4.0090 C.3     1  UNL1        0.0000
     37 H           0.2202   -1.3483    4.2599 H       1  UNL1        0.0000
     38 H           0.6426   -3.0364    4.6225 H       1  UNL1        0.0000
     39 H           1.9291   -1.8723    4.2392 H       1  UNL1        0.0000
@<TRIPOS>BOND
     1     3     4    1
     2     3     5    1
     3    27     8    1
     4    29    10    1
     5     4     1    1
     6    16    15    1
     7    17    15    1
     8     5     2    1
     9     8    10   ar
    10     8     7   ar
    11    10    12   ar
    12    26    24    2
    13    15    32    1
    14    15    13    1
    15    33    32    1
    16    32    34    1
    17    32    35    1
    18    14     2    1
    19    14    19    1
    20    13    19    1
    21     1     6    1
    22    24     7    1
    23    24    25    2
    24     7     9   ar
    25    12    20    1
    26    12    11   ar
    27    20    19    1
    28    19    18    1
    29     6    31    1
    30     9    11   ar
    31     9    28    1
    32    11    30    1
    33    18    21    1
    34    22    21    1
    35    23    21    1
    36    21    36    1
    37    36    39    1
    38    36    37    1
    39    36    38    1
@<TRIPOS>MOLECULE
pte_paraoxon_dft_ChenJACS_coords_exact_w_ethyl_geomOPT_v2
 39 39 0 0 0
SMALL
GASTEIGER

@<TRIPOS>ATOM
      1 ZN         -2.5974   -0.5548   -0.2274 Zn      1  UNL1        0.0000
      2 ZN          0.1758    1.5571    0.0209 Zn      1  UNL1        0.0000
      3 C          -1.5302    1.3630   -2.3644 C.3     1  UNL1        0.0000
      4 O          -1.9916    0.2024   -2.1294 O.3     1  UNL1        0.0000
      5 O          -1.0508    2.1703   -1.4829 O.3     1  UNL1        0.0000
      6 O          -0.8174   -0.1297    0.6810 O.3     1  UNL1        0.0000
      7 C           6.2301   -1.2161   -0.1362 C.ar    1  UNL1        0.0000
      8 C           5.4536   -1.0984   -1.2901 C.ar    1  UNL1        0.0000
      9 C           5.7136   -1.7345    1.0501 C.ar    1  UNL1        0.0000
     10 C           4.1216   -1.4942   -1.2477 C.ar    1  UNL1        0.0000
     11 C           4.3780   -2.1240    1.0884 C.ar    1  UNL1        0.0000
     12 C           3.5833   -1.9958   -0.0555 C.ar    1  UNL1        0.0000
     13 O          -0.1331   -2.3603   -0.1890 O.3     1  UNL1        0.0000
     14 O           1.4581   -0.0853   -0.3910 O.3     1  UNL1        0.0000
     15 C           0.0185   -3.2743   -1.3172 C.3     1  UNL1        0.0000
     16 H          -0.9366   -3.8012   -1.3299 H       1  UNL1        0.0000
     17 H           0.8201   -3.9800   -1.0949 H       1  UNL1        0.0000
     18 O           1.1616   -1.2919    1.9091 O.3     1  UNL1        0.0000
     19 P           1.0183   -1.3545    0.3125 P.3     1  UNL1        0.0000
     20 O           2.2745   -2.4183   -0.0280 O.3     1  UNL1        0.0000
     21 C           0.5575   -2.3099    2.7709 C.3     1  UNL1        0.0000
     22 H          -0.3612   -2.6642    2.3026 H       1  UNL1        0.0000
     23 H           0.2826   -1.7700    3.6760 H       1  UNL1        0.0000
     24 N           7.6286   -0.7670   -0.1714 N.pl3   1  UNL1        0.0000
     25 O           8.3117   -0.9446    0.8347 O.2     1  UNL1        0.0000
     26 O           8.0246   -0.2268   -1.2062 O.2     1  UNL1        0.0000
     27 H           5.9033   -0.7075   -2.1946 H       1  UNL1        0.0000
     28 H           6.3556   -1.8183    1.9181 H       1  UNL1        0.0000
     29 H           3.4871   -1.4158   -2.1227 H       1  UNL1        0.0000
     30 H           3.9449   -2.5266    1.9966 H       1  UNL1        0.0000
     31 H          -1.0975   -0.2695    1.6240 H       1  UNL1        0.0000
     32 C           0.2529   -2.5274   -2.6170 C.3     1  UNL1        0.0000
     33 H           0.1788   -3.2269   -3.4567 H       1  UNL1        0.0000
     34 H          -0.4931   -1.7382   -2.7430 H       1  UNL1        0.0000
     35 H           1.2475   -2.0734   -2.6391 H       1  UNL1        0.0000
     36 C           1.5184   -3.4480    3.0526 C.3     1  UNL1        0.0000
     37 H           2.4262   -3.0828    3.5430 H       1  UNL1        0.0000
     38 H           1.0347   -4.1647    3.7258 H       1  UNL1        0.0000
     39 H           1.7970   -3.9707    2.1335 H       1  UNL1        0.0000
@<TRIPOS>BOND
     1    33    32    1
     2    34    32    1
     3    35    32    1
     4    32    15    1
     5     3     4    1
     6     3     5    1
     7    27     8    1
     8     4     1    1
     9    29    10    1
    10     5     2    1
    11    16    15    1
    12    15    17    1
    13    15    13    1
    14     8    10   ar
    15     8     7   ar
    16    10    12   ar
    17    26    24    2
    18    14     2    1
    19    14    19    1
    20     1     6    1
    21    13    19    1
    22    24     7    1
    23    24    25    2
    24     7     9   ar
    25    12    20    1
    26    12    11   ar
    27    20    19    1
    28    19    18    1
    29     6    31    1
    30     9    11   ar
    31     9    28    1
    32    11    30    1
    33    18    21    1
    34    39    36    1
    35    22    21    1
    36    21    36    1
    37    21    23    1
    38    36    37    1
    39    36    38    1
