@<TRIPOS>MOLECULE
ligand_only_fromSINGLEpdb__lig_YYE.pdb
 39 39 0 0 0
SMALL
GASTEIGER

@<TRIPOS>ATOM
      1 P1          2.4230   -1.6390   -0.0650 P.3      1 UNL1       0.0000
      2 C1          0.3300    1.6370   -2.5500 C.3      1 UNL1       0.0000
      3 N1          8.3730    0.9670   -0.3250 N.pl3    1 UNL1       0.0000
      4 O1         -0.3490    0.5630   -2.5170 O.3      1 UNL1       0.0000
      5 C2          7.4670   -0.1230   -0.3500 C.ar     1 UNL1       0.0000
      6 O2          0.8970    2.2050   -1.5610 O.3      1 UNL1       0.0000
      7 C3          6.7930   -0.4670   -1.5290 C.ar     1 UNL1       0.0000
      8 O3          0.6740   -0.7760    0.0960 O.3      1 UNL1       0.0000
      9 C4          7.1180   -0.7450    0.8550 C.ar     1 UNL1       0.0000
     10 O4          1.7540   -2.9060   -0.6820 O.3      1 UNL1       0.0000
     11 C5          5.7150   -1.3350   -1.4780 C.ar     1 UNL1       0.0000
     12 O5          2.8700   -0.4310   -0.8240 O.3      1 UNL1       0.0000
     13 C6          5.9980   -1.5670    0.9080 C.ar     1 UNL1       0.0000
     14 O6          2.4430   -1.6650    1.5120 O.3      1 UNL1       0.0000
     15 C7          5.2260   -1.8080   -0.2450 C.ar     1 UNL1       0.0000
     16 O7          4.0650   -2.4730   -0.1830 O.3      1 UNL1       0.0000
     17 C8          2.2140   -3.3560   -2.0000 C.3      1 UNL1       0.0000
     18 O8          9.0740    1.1470    0.6890 O.2      1 UNL1       0.0000
     19 C9          2.8630   -2.8120    2.2970 C.3      1 UNL1       0.0000
     20 O9          8.3550    1.7730   -1.2990 O.2      1 UNL1       0.0000
     21 C10         2.8880   -4.6980   -1.8490 C.3      1 UNL1       0.0000
     22 C11         2.8180   -2.4050    3.7460 C.3      1 UNL1       0.0000
     23 ZN1        -1.1430   -0.5960   -1.0530 Zn       1 UNL1       0.0000
     24 ZN2         1.8590    1.1800   -0.1460 Zn       1 UNL1       0.0000
     25 H1          2.8850   -2.6030   -2.4130 H        1 UNL1       0.0000
     26 H2          1.3230   -3.3820   -2.6290 H        1 UNL1       0.0000
     27 H3          3.8480   -3.1320    1.9640 H        1 UNL1       0.0000
     28 H4          2.1670   -3.6270    2.0890 H        1 UNL1       0.0000
     29 H5          7.0920    0.0160   -2.4510 H        1 UNL1       0.0000
     30 H6          7.6710   -0.4640    1.7400 H        1 UNL1       0.0000
     31 H7          5.1310   -1.5390   -2.3670 H        1 UNL1       0.0000
     32 H8          5.6570   -1.9590    1.8590 H        1 UNL1       0.0000
     33 H9          0.2500   -1.0880    0.9300 H        1 UNL1       0.0000
     34 H10         3.3500   -5.0120   -2.7860 H        1 UNL1       0.0000
     35 H11         3.6750   -4.6450   -1.0950 H        1 UNL1       0.0000
     36 H12         2.1720   -5.4650   -1.5480 H        1 UNL1       0.0000
     37 H13         1.8400   -1.9800    3.9800 H        1 UNL1       0.0000
     38 H14         2.9820   -3.2690    4.3970 H        1 UNL1       0.0000
     39 H15         3.5810   -1.6530    3.9590 H        1 UNL1       0.0000
@<TRIPOS>BOND
     1    34    21    1
     2    26    17    1
     3     2     4    1
     4     2     6    1
     5     4    23    1
     6    29     7    1
     7    25    17    1
     8    31    11    1
     9    17    21    1
    10    17    10    1
    11    21    36    1
    12    21    35    1
    13     6    24    1
    14     7    11   ar
    15     7     5   ar
    16    11    15   ar
    17    20     3    2
    18    12    24    1
    19    12     1    1
    20    10     1    1
    21     5     3    1
    22     5     9   ar
    23     3    18    2
    24    15    16    1
    25    15    13   ar
    26    16     1    1
    27     1     8    1
    28     1    14    1
    29     8    33    1
    30     9    13   ar
    31     9    30    1
    32    13    32    1
    33    14    19    1
    34    27    19    1
    35    28    19    1
    36    19    22    1
    37    22    39    1
    38    22    37    1
    39    22    38    1
